
#======================================================================
# CRYSTAL DATA
#----------------------------------------------------------------------
data_VESTA_phase_1

_chemical_name_common                  'New structure'
_cell_length_a                         7.000000
_cell_length_b                         3.000000
_cell_length_c                         5.000000
_cell_angle_alpha                      90.000000
_cell_angle_beta                       90.000000
_cell_angle_gamma                      81.000000
_cell_volume                           103.707276
_space_group_name_H-M_alt              'P 2/m'
_space_group_IT_number                 10

loop_
_space_group_symop_operation_xyz
   'x, y, z'
   '-x, -y, -z'
   '-x, -y, z'
   'x, y, -z'

loop_
   _atom_site_label
   _atom_site_occupancy
   _atom_site_fract_x
   _atom_site_fract_y
   _atom_site_fract_z
   _atom_site_adp_type
   _atom_site_B_iso_or_equiv
   _atom_site_type_symbol
   Ca1        0.5000  0.000000     0.000000     0.000000    Biso  1.000000 Ca
   Ba1        0.5000  0.000000     0.000000     0.000000    Biso  1.000000 Ba
   O1         0.5000  0.000000    -0.300000     0.500000    Biso  1.000000 O
   O2         1.0000  0.500000     0.500000     0.500000    Biso  1.000000 O
