# CIF file generated by supercell program. See https://orex.github.io/supercell
# E_e = 0.0000000000 eV
data_
_chemical_name_common ''
_cell_length_a 5.2029
_cell_length_b 10.4058
_cell_length_c 15.2936
_cell_angle_alpha 90
_cell_angle_beta 90
_cell_angle_gamma 120
_space_group_IT_number 1
_space_group_name_H-M_alt 'P 1'
_space_group_name_Hall 'P 1'
loop_
    _space_group_symop_operation_xyz
    x,y,z
loop_ 
    _atom_type_symbol
    _atom_type_oxidation_number
    Al1     +3
    O1      -2
    O2      -2
    Si1     +4
    Sr1     +2
    Sr2     +2
loop_
    _atom_site_label
    _atom_site_type_symbol
    _atom_site_fract_x
    _atom_site_fract_y
    _atom_site_fract_z
    _atom_site_occupancy
    Si1     Si   0.3333333333   0.3333333333   0.1415660000   0.375
    Al1     Al   0.3333333333   0.3333333333   0.1415660000   0.625
    Si1     Si   0.6666666667   0.1666666667   0.6415660000   0.375
    Al1     Al   0.6666666667   0.1666666667   0.6415660000   0.625
    Si1     Si   0.3333333333   0.8333333333   0.8584340000   0.375
    Al1     Al   0.3333333333   0.8333333333   0.8584340000   0.625
    Si1     Si   0.6666666667   0.1666666667   0.3584340000   0.375
    Al1     Al   0.6666666667   0.1666666667   0.3584340000   0.625
    Si1     Si   0.6666666667   0.6666666667   0.8584340000   0.375
    Al1     Al   0.6666666667   0.6666666667   0.8584340000   0.625
    Si1     Si   0.3333333333   0.8333333333   0.3584340000   0.375
    Al1     Al   0.3333333333   0.8333333333   0.3584340000   0.625
    Si1     Si   0.6666666667   0.1666666667   0.1415660000   0.375
    Al1     Al   0.6666666667   0.1666666667   0.1415660000   0.625
    Si1     Si   0.3333333333   0.8333333333   0.6415660000   0.375
    Al1     Al   0.3333333333   0.8333333333   0.6415660000   0.625
    Si1     Si   0.3333333333   0.8333333333   0.1415660000   0.375
    Al1     Al   0.3333333333   0.8333333333   0.1415660000   0.625
    Si1     Si   0.6666666667   0.6666666667   0.6415660000   0.375
    Al1     Al   0.6666666667   0.6666666667   0.6415660000   0.625
    Si1     Si   0.3333333333   0.3333333333   0.8584340000   0.375
    Al1     Al   0.3333333333   0.3333333333   0.8584340000   0.625
    Si1     Si   0.6666666667   0.6666666667   0.3584340000   0.375
    Al1     Al   0.6666666667   0.6666666667   0.3584340000   0.625
    Si1     Si   0.6666666667   0.1666666667   0.8584340000   0.375
    Al1     Al   0.6666666667   0.1666666667   0.8584340000   0.625
    Si1     Si   0.3333333333   0.3333333333   0.3584340000   0.375
    Al1     Al   0.3333333333   0.3333333333   0.3584340000   0.625
    Si1     Si   0.6666666667   0.6666666667   0.1415660000   0.375
    Al1     Al   0.6666666667   0.6666666667   0.1415660000   0.625
    Si1     Si   0.3333333333   0.3333333333   0.6415660000   0.375
    Al1     Al   0.3333333333   0.3333333333   0.6415660000   0.625
    O1      O    0.3333333333   0.3333333333   0.2500000000   1.000
    O1      O    0.6666666633   0.1666666666   0.7500000000   1.000
    O1      O    0.3333333333   0.8333333334   0.7500000000   1.000
    O1      O    0.6666666667   0.1666666683   0.2500000000   1.000
    O1      O    0.3333333333   0.8333333333   0.2500000000   1.000
    O1      O    0.6666666633   0.6666666667   0.7500000000   1.000
    O1      O    0.3333333333   0.3333333334   0.7500000000   1.000
    O1      O    0.6666666667   0.6666666667   0.2500000000   1.000
    O2      O    0.3972800000   0.0000000000   0.1021900000   1.000
    O2      O    0.3972800000   0.1986400000   0.6021900000   1.000
    O2      O    0.0000000000   0.1986400000   0.1021900000   1.000
    O2      O    0.6027200000   0.0000000000   0.6021900000   1.000
    O2      O    0.6027200000   0.8013600000   0.1021900000   1.000
    O2      O    0.0000000000   0.8013600000   0.6021900000   1.000
    O2      O    0.0000000000   0.8013600000   0.8978100000   1.000
    O2      O    0.6027200000   0.8013600000   0.3978100000   1.000
    O2      O    0.6027200000   0.0000000000   0.8978100000   1.000
    O2      O    0.0000000000   0.1986400000   0.3978100000   1.000
    O2      O    0.3972800000   0.1986400000   0.8978100000   1.000
    O2      O    0.3972800000   0.0000000000   0.3978100000   1.000
    O2      O    0.3972800000   0.5000000000   0.1021900000   1.000
    O2      O    0.3972800000   0.6986400000   0.6021900000   1.000
    O2      O    0.0000000000   0.6986400000   0.1021900000   1.000
    O2      O    0.6027200000   0.5000000000   0.6021900000   1.000
    O2      O    0.6027200000   0.3013600000   0.1021900000   1.000
    O2      O    0.0000000000   0.3013600000   0.6021900000   1.000
    O2      O    0.0000000000   0.3013600000   0.8978100000   1.000
    O2      O    0.6027200000   0.3013600000   0.3978100000   1.000
    O2      O    0.6027200000   0.5000000000   0.8978100000   1.000
    O2      O    0.0000000000   0.6986400000   0.3978100000   1.000
    O2      O    0.3972800000   0.6986400000   0.8978100000   1.000
    O2      O    0.3972800000   0.5000000000   0.3978100000   1.000
    Sr1     Sr   0.0000000000   0.0000000000   0.0000000000   1.000
    Sr1     Sr   0.0000000000   0.0000000000   0.5000000000   1.000
    Sr1     Sr   0.0000000000   0.5000000000   0.0000000000   1.000
    Sr1     Sr   0.0000000000   0.5000000000   0.5000000000   1.000
    Sr2     Sr   0.0000000000   0.0000000000   0.2500000000   0.250
    Sr2     Sr   0.0000000000   0.0000000000   0.7500000000   0.250
    Sr2     Sr   0.0000000000   0.5000000000   0.2500000000   0.250
    Sr2     Sr   0.0000000000   0.5000000000   0.7500000000   0.250
